*SPEF "ieee 1481-1999"
*DESIGN "scan_wrapper_341533740987581011"
*DATE "11:11:11 Fri 11 11, 1111"
*VENDOR "OpenRCX"
*PROGRAM "Parallel Extraction"
*VERSION "1.0"
*DESIGN_FLOW "NAME_SCOPE LOCAL" "PIN_CAP NONE"
*DIVIDER /
*DELIMITER :
*BUS_DELIMITER []
*T_UNIT 1 NS
*C_UNIT 1 PF
*R_UNIT 1 OHM
*L_UNIT 1 HENRY

*NAME_MAP
*1 clk_in
*2 clk_out
*3 data_in
*4 data_out
*5 latch_enable_in
*6 latch_enable_out
*7 scan_select_in
*8 scan_select_out
*11 net1
*12 net2
*13 net3
*14 net4
*15 net5
*16 scan_data_in\[1\]
*17 scan_data_in\[2\]
*18 scan_data_in\[3\]
*19 scan_data_in\[4\]
*20 scan_data_in\[5\]
*21 scan_data_in\[6\]
*22 scan_data_in\[7\]
*23 user_module\.gate1\.b
*24 user_module\.gate5\.in
*25 user_module\.gate5\.out
*26 user_module\.net4
*27 user_module\.net5
*28 user_module\.net6
*29 user_module\.net7
*30 user_module\.net8
*31 FILLER_0_109
*32 FILLER_0_113
*33 FILLER_0_125
*34 FILLER_0_13
*35 FILLER_0_137
*36 FILLER_0_141
*37 FILLER_0_153
*38 FILLER_0_165
*39 FILLER_0_169
*40 FILLER_0_181
*41 FILLER_0_189
*42 FILLER_0_25
*43 FILLER_0_29
*44 FILLER_0_3
*45 FILLER_0_41
*46 FILLER_0_53
*47 FILLER_0_57
*48 FILLER_0_69
*49 FILLER_0_81
*50 FILLER_0_85
*51 FILLER_0_97
*52 FILLER_10_111
*53 FILLER_10_123
*54 FILLER_10_135
*55 FILLER_10_139
*56 FILLER_10_141
*57 FILLER_10_15
*58 FILLER_10_153
*59 FILLER_10_165
*60 FILLER_10_177
*61 FILLER_10_189
*62 FILLER_10_27
*63 FILLER_10_29
*64 FILLER_10_3
*65 FILLER_10_41
*66 FILLER_10_53
*67 FILLER_10_65
*68 FILLER_10_77
*69 FILLER_10_83
*70 FILLER_10_85
*71 FILLER_10_97
*72 FILLER_11_108
*73 FILLER_11_125
*74 FILLER_11_137
*75 FILLER_11_149
*76 FILLER_11_15
*77 FILLER_11_161
*78 FILLER_11_167
*79 FILLER_11_169
*80 FILLER_11_181
*81 FILLER_11_189
*82 FILLER_11_27
*83 FILLER_11_3
*84 FILLER_11_39
*85 FILLER_11_51
*86 FILLER_11_55
*87 FILLER_11_57
*88 FILLER_11_69
*89 FILLER_11_81
*90 FILLER_11_93
*91 FILLER_12_121
*92 FILLER_12_133
*93 FILLER_12_139
*94 FILLER_12_141
*95 FILLER_12_15
*96 FILLER_12_153
*97 FILLER_12_165
*98 FILLER_12_177
*99 FILLER_12_189
*100 FILLER_12_27
*101 FILLER_12_29
*102 FILLER_12_3
*103 FILLER_12_41
*104 FILLER_12_53
*105 FILLER_12_65
*106 FILLER_12_77
*107 FILLER_12_83
*108 FILLER_12_85
*109 FILLER_12_97
*110 FILLER_13_108
*111 FILLER_13_117
*112 FILLER_13_121
*113 FILLER_13_143
*114 FILLER_13_15
*115 FILLER_13_155
*116 FILLER_13_167
*117 FILLER_13_169
*118 FILLER_13_181
*119 FILLER_13_189
*120 FILLER_13_27
*121 FILLER_13_3
*122 FILLER_13_39
*123 FILLER_13_51
*124 FILLER_13_55
*125 FILLER_13_57
*126 FILLER_13_69
*127 FILLER_13_83
*128 FILLER_14_124
*129 FILLER_14_131
*130 FILLER_14_139
*131 FILLER_14_141
*132 FILLER_14_15
*133 FILLER_14_153
*134 FILLER_14_165
*135 FILLER_14_177
*136 FILLER_14_186
*137 FILLER_14_27
*138 FILLER_14_29
*139 FILLER_14_3
*140 FILLER_14_41
*141 FILLER_14_53
*142 FILLER_14_65
*143 FILLER_14_80
*144 FILLER_14_85
*145 FILLER_14_99
*146 FILLER_15_107
*147 FILLER_15_111
*148 FILLER_15_134
*149 FILLER_15_146
*150 FILLER_15_15
*151 FILLER_15_158
*152 FILLER_15_166
*153 FILLER_15_169
*154 FILLER_15_181
*155 FILLER_15_189
*156 FILLER_15_27
*157 FILLER_15_3
*158 FILLER_15_39
*159 FILLER_15_51
*160 FILLER_15_55
*161 FILLER_15_57
*162 FILLER_15_69
*163 FILLER_15_81
*164 FILLER_16_121
*165 FILLER_16_133
*166 FILLER_16_139
*167 FILLER_16_141
*168 FILLER_16_15
*169 FILLER_16_153
*170 FILLER_16_165
*171 FILLER_16_177
*172 FILLER_16_189
*173 FILLER_16_27
*174 FILLER_16_29
*175 FILLER_16_3
*176 FILLER_16_41
*177 FILLER_16_53
*178 FILLER_16_65
*179 FILLER_16_77
*180 FILLER_16_83
*181 FILLER_16_85
*182 FILLER_16_97
*183 FILLER_17_105
*184 FILLER_17_111
*185 FILLER_17_113
*186 FILLER_17_125
*187 FILLER_17_137
*188 FILLER_17_149
*189 FILLER_17_15
*190 FILLER_17_161
*191 FILLER_17_167
*192 FILLER_17_169
*193 FILLER_17_181
*194 FILLER_17_189
*195 FILLER_17_27
*196 FILLER_17_3
*197 FILLER_17_39
*198 FILLER_17_51
*199 FILLER_17_55
*200 FILLER_17_57
*201 FILLER_17_69
*202 FILLER_17_81
*203 FILLER_17_93
*204 FILLER_18_119
*205 FILLER_18_131
*206 FILLER_18_139
*207 FILLER_18_141
*208 FILLER_18_15
*209 FILLER_18_153
*210 FILLER_18_165
*211 FILLER_18_177
*212 FILLER_18_189
*213 FILLER_18_27
*214 FILLER_18_29
*215 FILLER_18_3
*216 FILLER_18_41
*217 FILLER_18_53
*218 FILLER_18_65
*219 FILLER_18_77
*220 FILLER_18_83
*221 FILLER_18_85
*222 FILLER_18_97
*223 FILLER_19_105
*224 FILLER_19_111
*225 FILLER_19_113
*226 FILLER_19_125
*227 FILLER_19_137
*228 FILLER_19_149
*229 FILLER_19_15
*230 FILLER_19_161
*231 FILLER_19_167
*232 FILLER_19_169
*233 FILLER_19_181
*234 FILLER_19_189
*235 FILLER_19_27
*236 FILLER_19_3
*237 FILLER_19_39
*238 FILLER_19_51
*239 FILLER_19_55
*240 FILLER_19_57
*241 FILLER_19_69
*242 FILLER_19_81
*243 FILLER_19_93
*244 FILLER_1_105
*245 FILLER_1_111
*246 FILLER_1_113
*247 FILLER_1_125
*248 FILLER_1_137
*249 FILLER_1_149
*250 FILLER_1_15
*251 FILLER_1_161
*252 FILLER_1_167
*253 FILLER_1_169
*254 FILLER_1_181
*255 FILLER_1_189
*256 FILLER_1_27
*257 FILLER_1_3
*258 FILLER_1_39
*259 FILLER_1_51
*260 FILLER_1_55
*261 FILLER_1_57
*262 FILLER_1_69
*263 FILLER_1_81
*264 FILLER_1_93
*265 FILLER_20_109
*266 FILLER_20_121
*267 FILLER_20_133
*268 FILLER_20_139
*269 FILLER_20_141
*270 FILLER_20_15
*271 FILLER_20_153
*272 FILLER_20_165
*273 FILLER_20_177
*274 FILLER_20_189
*275 FILLER_20_27
*276 FILLER_20_29
*277 FILLER_20_3
*278 FILLER_20_41
*279 FILLER_20_53
*280 FILLER_20_65
*281 FILLER_20_77
*282 FILLER_20_83
*283 FILLER_20_85
*284 FILLER_20_97
*285 FILLER_21_105
*286 FILLER_21_111
*287 FILLER_21_113
*288 FILLER_21_125
*289 FILLER_21_137
*290 FILLER_21_149
*291 FILLER_21_15
*292 FILLER_21_161
*293 FILLER_21_167
*294 FILLER_21_169
*295 FILLER_21_181
*296 FILLER_21_189
*297 FILLER_21_27
*298 FILLER_21_3
*299 FILLER_21_39
*300 FILLER_21_51
*301 FILLER_21_55
*302 FILLER_21_57
*303 FILLER_21_69
*304 FILLER_21_81
*305 FILLER_21_93
*306 FILLER_22_109
*307 FILLER_22_121
*308 FILLER_22_133
*309 FILLER_22_139
*310 FILLER_22_141
*311 FILLER_22_15
*312 FILLER_22_153
*313 FILLER_22_165
*314 FILLER_22_177
*315 FILLER_22_189
*316 FILLER_22_27
*317 FILLER_22_29
*318 FILLER_22_3
*319 FILLER_22_41
*320 FILLER_22_53
*321 FILLER_22_65
*322 FILLER_22_77
*323 FILLER_22_83
*324 FILLER_22_85
*325 FILLER_22_97
*326 FILLER_23_105
*327 FILLER_23_111
*328 FILLER_23_113
*329 FILLER_23_125
*330 FILLER_23_137
*331 FILLER_23_149
*332 FILLER_23_15
*333 FILLER_23_161
*334 FILLER_23_167
*335 FILLER_23_169
*336 FILLER_23_181
*337 FILLER_23_189
*338 FILLER_23_27
*339 FILLER_23_3
*340 FILLER_23_39
*341 FILLER_23_51
*342 FILLER_23_55
*343 FILLER_23_57
*344 FILLER_23_69
*345 FILLER_23_81
*346 FILLER_23_93
*347 FILLER_24_109
*348 FILLER_24_121
*349 FILLER_24_133
*350 FILLER_24_139
*351 FILLER_24_141
*352 FILLER_24_15
*353 FILLER_24_153
*354 FILLER_24_165
*355 FILLER_24_177
*356 FILLER_24_189
*357 FILLER_24_27
*358 FILLER_24_29
*359 FILLER_24_3
*360 FILLER_24_41
*361 FILLER_24_53
*362 FILLER_24_65
*363 FILLER_24_77
*364 FILLER_24_83
*365 FILLER_24_85
*366 FILLER_24_97
*367 FILLER_25_105
*368 FILLER_25_111
*369 FILLER_25_113
*370 FILLER_25_125
*371 FILLER_25_137
*372 FILLER_25_149
*373 FILLER_25_15
*374 FILLER_25_161
*375 FILLER_25_167
*376 FILLER_25_169
*377 FILLER_25_181
*378 FILLER_25_189
*379 FILLER_25_27
*380 FILLER_25_3
*381 FILLER_25_39
*382 FILLER_25_51
*383 FILLER_25_55
*384 FILLER_25_57
*385 FILLER_25_69
*386 FILLER_25_81
*387 FILLER_25_93
*388 FILLER_26_109
*389 FILLER_26_121
*390 FILLER_26_133
*391 FILLER_26_139
*392 FILLER_26_141
*393 FILLER_26_15
*394 FILLER_26_153
*395 FILLER_26_165
*396 FILLER_26_177
*397 FILLER_26_189
*398 FILLER_26_27
*399 FILLER_26_29
*400 FILLER_26_3
*401 FILLER_26_41
*402 FILLER_26_53
*403 FILLER_26_65
*404 FILLER_26_77
*405 FILLER_26_83
*406 FILLER_26_85
*407 FILLER_26_97
*408 FILLER_27_100
*409 FILLER_27_113
*410 FILLER_27_125
*411 FILLER_27_137
*412 FILLER_27_141
*413 FILLER_27_15
*414 FILLER_27_153
*415 FILLER_27_165
*416 FILLER_27_169
*417 FILLER_27_181
*418 FILLER_27_186
*419 FILLER_27_27
*420 FILLER_27_29
*421 FILLER_27_3
*422 FILLER_27_41
*423 FILLER_27_53
*424 FILLER_27_57
*425 FILLER_27_69
*426 FILLER_27_81
*427 FILLER_27_85
*428 FILLER_27_93
*429 FILLER_2_109
*430 FILLER_2_121
*431 FILLER_2_133
*432 FILLER_2_139
*433 FILLER_2_141
*434 FILLER_2_15
*435 FILLER_2_153
*436 FILLER_2_165
*437 FILLER_2_177
*438 FILLER_2_189
*439 FILLER_2_27
*440 FILLER_2_29
*441 FILLER_2_3
*442 FILLER_2_41
*443 FILLER_2_53
*444 FILLER_2_65
*445 FILLER_2_77
*446 FILLER_2_83
*447 FILLER_2_85
*448 FILLER_2_97
*449 FILLER_3_105
*450 FILLER_3_111
*451 FILLER_3_113
*452 FILLER_3_125
*453 FILLER_3_137
*454 FILLER_3_149
*455 FILLER_3_15
*456 FILLER_3_161
*457 FILLER_3_167
*458 FILLER_3_173
*459 FILLER_3_185
*460 FILLER_3_189
*461 FILLER_3_27
*462 FILLER_3_3
*463 FILLER_3_39
*464 FILLER_3_51
*465 FILLER_3_55
*466 FILLER_3_57
*467 FILLER_3_69
*468 FILLER_3_81
*469 FILLER_3_93
*470 FILLER_4_101
*471 FILLER_4_113
*472 FILLER_4_125
*473 FILLER_4_137
*474 FILLER_4_141
*475 FILLER_4_15
*476 FILLER_4_153
*477 FILLER_4_165
*478 FILLER_4_177
*479 FILLER_4_189
*480 FILLER_4_27
*481 FILLER_4_29
*482 FILLER_4_3
*483 FILLER_4_41
*484 FILLER_4_53
*485 FILLER_4_65
*486 FILLER_4_77
*487 FILLER_4_83
*488 FILLER_4_85
*489 FILLER_5_105
*490 FILLER_5_111
*491 FILLER_5_113
*492 FILLER_5_125
*493 FILLER_5_137
*494 FILLER_5_149
*495 FILLER_5_15
*496 FILLER_5_161
*497 FILLER_5_167
*498 FILLER_5_169
*499 FILLER_5_181
*500 FILLER_5_189
*501 FILLER_5_27
*502 FILLER_5_3
*503 FILLER_5_39
*504 FILLER_5_51
*505 FILLER_5_55
*506 FILLER_5_57
*507 FILLER_5_69
*508 FILLER_5_81
*509 FILLER_5_93
*510 FILLER_6_109
*511 FILLER_6_121
*512 FILLER_6_133
*513 FILLER_6_139
*514 FILLER_6_141
*515 FILLER_6_15
*516 FILLER_6_153
*517 FILLER_6_165
*518 FILLER_6_177
*519 FILLER_6_189
*520 FILLER_6_27
*521 FILLER_6_29
*522 FILLER_6_3
*523 FILLER_6_41
*524 FILLER_6_53
*525 FILLER_6_65
*526 FILLER_6_77
*527 FILLER_6_83
*528 FILLER_6_85
*529 FILLER_6_97
*530 FILLER_7_105
*531 FILLER_7_111
*532 FILLER_7_113
*533 FILLER_7_125
*534 FILLER_7_137
*535 FILLER_7_149
*536 FILLER_7_15
*537 FILLER_7_161
*538 FILLER_7_167
*539 FILLER_7_169
*540 FILLER_7_181
*541 FILLER_7_189
*542 FILLER_7_27
*543 FILLER_7_3
*544 FILLER_7_39
*545 FILLER_7_51
*546 FILLER_7_55
*547 FILLER_7_57
*548 FILLER_7_69
*549 FILLER_7_81
*550 FILLER_7_93
*551 FILLER_8_109
*552 FILLER_8_121
*553 FILLER_8_133
*554 FILLER_8_139
*555 FILLER_8_141
*556 FILLER_8_15
*557 FILLER_8_153
*558 FILLER_8_165
*559 FILLER_8_177
*560 FILLER_8_189
*561 FILLER_8_27
*562 FILLER_8_29
*563 FILLER_8_3
*564 FILLER_8_41
*565 FILLER_8_53
*566 FILLER_8_65
*567 FILLER_8_77
*568 FILLER_8_83
*569 FILLER_8_85
*570 FILLER_8_97
*571 FILLER_9_108
*572 FILLER_9_113
*573 FILLER_9_125
*574 FILLER_9_137
*575 FILLER_9_149
*576 FILLER_9_15
*577 FILLER_9_161
*578 FILLER_9_167
*579 FILLER_9_169
*580 FILLER_9_181
*581 FILLER_9_189
*582 FILLER_9_27
*583 FILLER_9_3
*584 FILLER_9_39
*585 FILLER_9_51
*586 FILLER_9_55
*587 FILLER_9_57
*588 FILLER_9_69
*589 FILLER_9_81
*590 FILLER_9_93
*591 PHY_0
*592 PHY_1
*593 PHY_10
*594 PHY_11
*595 PHY_12
*596 PHY_13
*597 PHY_14
*598 PHY_15
*599 PHY_16
*600 PHY_17
*601 PHY_18
*602 PHY_19
*603 PHY_2
*604 PHY_20
*605 PHY_21
*606 PHY_22
*607 PHY_23
*608 PHY_24
*609 PHY_25
*610 PHY_26
*611 PHY_27
*612 PHY_28
*613 PHY_29
*614 PHY_3
*615 PHY_30
*616 PHY_31
*617 PHY_32
*618 PHY_33
*619 PHY_34
*620 PHY_35
*621 PHY_36
*622 PHY_37
*623 PHY_38
*624 PHY_39
*625 PHY_4
*626 PHY_40
*627 PHY_41
*628 PHY_42
*629 PHY_43
*630 PHY_44
*631 PHY_45
*632 PHY_46
*633 PHY_47
*634 PHY_48
*635 PHY_49
*636 PHY_5
*637 PHY_50
*638 PHY_51
*639 PHY_52
*640 PHY_53
*641 PHY_54
*642 PHY_55
*643 PHY_6
*644 PHY_7
*645 PHY_8
*646 PHY_9
*647 TAP_100
*648 TAP_101
*649 TAP_102
*650 TAP_103
*651 TAP_104
*652 TAP_105
*653 TAP_106
*654 TAP_107
*655 TAP_108
*656 TAP_109
*657 TAP_110
*658 TAP_111
*659 TAP_112
*660 TAP_113
*661 TAP_114
*662 TAP_115
*663 TAP_116
*664 TAP_117
*665 TAP_118
*666 TAP_119
*667 TAP_120
*668 TAP_121
*669 TAP_122
*670 TAP_123
*671 TAP_124
*672 TAP_125
*673 TAP_126
*674 TAP_127
*675 TAP_128
*676 TAP_129
*677 TAP_130
*678 TAP_131
*679 TAP_132
*680 TAP_133
*681 TAP_134
*682 TAP_135
*683 TAP_136
*684 TAP_137
*685 TAP_138
*686 TAP_139
*687 TAP_140
*688 TAP_141
*689 TAP_142
*690 TAP_143
*691 TAP_144
*692 TAP_145
*693 TAP_56
*694 TAP_57
*695 TAP_58
*696 TAP_59
*697 TAP_60
*698 TAP_61
*699 TAP_62
*700 TAP_63
*701 TAP_64
*702 TAP_65
*703 TAP_66
*704 TAP_67
*705 TAP_68
*706 TAP_69
*707 TAP_70
*708 TAP_71
*709 TAP_72
*710 TAP_73
*711 TAP_74
*712 TAP_75
*713 TAP_76
*714 TAP_77
*715 TAP_78
*716 TAP_79
*717 TAP_80
*718 TAP_81
*719 TAP_82
*720 TAP_83
*721 TAP_84
*722 TAP_85
*723 TAP_86
*724 TAP_87
*725 TAP_88
*726 TAP_89
*727 TAP_90
*728 TAP_91
*729 TAP_92
*730 TAP_93
*731 TAP_94
*732 TAP_95
*733 TAP_96
*734 TAP_97
*735 TAP_98
*736 TAP_99
*737 _31_
*738 _53__5
*739 _63_
*740 _64_
*741 _65_
*742 input1
*743 input2
*744 input3
*745 input4
*746 latch\[1\]
*747 latch\[2\]
*748 latch\[3\]
*749 latch\[4\]
*750 latch\[5\]
*751 latch\[6\]
*752 latch\[7\]
*753 scan_flop\[0\]
*754 scan_flop\[1\]
*755 scan_flop\[2\]
*756 scan_flop\[3\]
*757 scan_flop\[4\]
*758 scan_flop\[5\]
*759 scan_flop\[6\]
*760 scan_flop\[7\]

*PORTS
clk_in I
clk_out O
data_in I
data_out O
latch_enable_in I
latch_enable_out O
scan_select_in I
scan_select_out O

*D_NET *1 0.00149569
*CONN
*P clk_in I
*I *742:A I *D sky130_fd_sc_hd__buf_2
*CAP
1 clk_in 0.000747844
2 *742:A 0.000747844
*RES
1 clk_in *742:A 33.8785 
*END

*D_NET *2 0.00215951
*CONN
*P clk_out O
*I *739:X O *D sky130_fd_sc_hd__buf_2
*CAP
1 clk_out 0.00107975
2 *739:X 0.00107975
*RES
1 *739:X clk_out 39.4077 
*END

*D_NET *3 0.0012408
*CONN
*P data_in I
*I *743:A I *D sky130_fd_sc_hd__clkbuf_1
*CAP
1 data_in 0.000564396
2 *743:A 0.000564396
3 *743:A *12:17 0.000112013
*RES
1 data_in *743:A 23.1077 
*END

*D_NET *4 0.00550299
*CONN
*P data_out O
*I *752:D I *D sky130_fd_sc_hd__dlxtp_1
*I *760:Q O *D sky130_fd_sc_hd__sdfxtp_2
*CAP
1 data_out 0.0018433
2 *752:D 0
3 *760:Q 0.000654465
4 *4:10 0.00249776
5 data_out *752:GATE 0.000327363
6 *4:10 *748:GATE 8.62625e-06
7 *4:10 *752:GATE 0
8 *4:10 *760:SCD 0.000171473
*RES
1 *760:Q *4:10 29.3995 
2 *4:10 data_out 39.1725 
3 *4:10 *752:D 9.24915 
*END

*D_NET *5 0.00160686
*CONN
*P latch_enable_in I
*I *744:A I *D sky130_fd_sc_hd__clkbuf_4
*CAP
1 latch_enable_in 0.00080343
2 *744:A 0.00080343
*RES
1 latch_enable_in *744:A 34.8539 
*END

*D_NET *6 0.00300947
*CONN
*P latch_enable_out O
*I *740:X O *D sky130_fd_sc_hd__buf_2
*CAP
1 latch_enable_out 0.00148341
2 *740:X 0.00148341
3 latch_enable_out *13:85 4.26566e-05
*RES
1 *740:X latch_enable_out 49.1147 
*END

*D_NET *7 0.00102475
*CONN
*P scan_select_in I
*I *745:A I *D sky130_fd_sc_hd__clkbuf_4
*CAP
1 scan_select_in 0.000512374
2 *745:A 0.000512374
*RES
1 scan_select_in *745:A 27.3626 
*END

*D_NET *8 0.00325641
*CONN
*P scan_select_out O
*I *741:X O *D sky130_fd_sc_hd__buf_2
*CAP
1 scan_select_out 0.00162821
2 *741:X 0.00162821
*RES
1 *741:X scan_select_out 48.287 
*END

*D_NET *11 0.0153635
*CONN
*I *757:CLK I *D sky130_fd_sc_hd__sdfxtp_1
*I *753:CLK I *D sky130_fd_sc_hd__sdfxtp_1
*I *754:CLK I *D sky130_fd_sc_hd__sdfxtp_1
*I *758:CLK I *D sky130_fd_sc_hd__sdfxtp_1
*I *756:CLK I *D sky130_fd_sc_hd__sdfxtp_1
*I *760:CLK I *D sky130_fd_sc_hd__sdfxtp_2
*I *739:A I *D sky130_fd_sc_hd__buf_2
*I *755:CLK I *D sky130_fd_sc_hd__sdfxtp_1
*I *759:CLK I *D sky130_fd_sc_hd__sdfxtp_1
*I *742:X O *D sky130_fd_sc_hd__buf_2
*CAP
1 *757:CLK 0
2 *753:CLK 0.000355828
3 *754:CLK 0
4 *758:CLK 0
5 *756:CLK 0.000291586
6 *760:CLK 3.29888e-05
7 *739:A 0
8 *755:CLK 0.000196688
9 *759:CLK 0.000359652
10 *742:X 0.00114135
11 *11:62 0.00048683
12 *11:56 0.00130154
13 *11:46 0.0014932
14 *11:42 0.000123452
15 *11:30 0.000452141
16 *11:23 0.000370515
17 *11:22 0.000722048
18 *11:18 0.000559399
19 *11:9 0.00192146
20 *11:8 0.00230087
21 *753:CLK *14:59 2.39519e-05
22 *755:CLK *750:D 0
23 *755:CLK *759:D 0
24 *755:CLK *27:16 6.08697e-06
25 *756:CLK *756:D 4.48454e-05
26 *756:CLK *756:SCE 3.83783e-05
27 *756:CLK *14:16 6.28484e-05
28 *756:CLK *14:18 5.56367e-05
29 *760:CLK *760:SCE 2.16355e-05
30 *11:22 *27:16 0
31 *11:23 *754:SCD 0.000265301
32 *11:30 *754:D 3.57312e-05
33 *11:30 *759:D 0
34 *11:30 *27:16 6.77522e-05
35 *11:42 *14:48 0.000293908
36 *11:42 *20:11 0.00011818
37 *11:42 *27:16 0.000777279
38 *11:46 *20:11 0.000107496
39 *11:46 *27:16 5.23032e-05
40 *11:56 *746:D 0.000170592
41 *11:56 *747:D 9.80448e-05
42 *11:56 *755:SCE 0.000154417
43 *11:56 *17:6 0.000186445
44 *11:56 *29:9 0.000132743
45 *11:62 *755:SCE 7.65861e-05
46 *11:62 *756:D 7.97533e-05
47 *11:62 *14:18 0.000262552
48 *11:62 *14:20 6.64609e-05
49 *11:62 *17:6 5.50603e-05
*RES
1 *742:X *11:8 47.0725 
2 *11:8 *11:9 27.899 
3 *11:9 *759:CLK 17.737 
4 *11:9 *11:18 14.637 
5 *11:18 *11:22 8.40826 
6 *11:22 *11:23 5.71483 
7 *11:23 *11:30 8.89679 
8 *11:30 *755:CLK 18.1049 
9 *11:30 *11:42 12.9878 
10 *11:42 *11:46 5.778 
11 *11:46 *11:56 41.3804 
12 *11:56 *739:A 9.24915 
13 *11:46 *11:62 7.23027 
14 *11:62 *760:CLK 14.4725 
15 *11:62 *756:CLK 19.9268 
16 *11:42 *758:CLK 9.24915 
17 *11:23 *754:CLK 9.24915 
18 *11:22 *753:CLK 26.9024 
19 *11:18 *757:CLK 13.7491 
*END

*D_NET *12 0.00248561
*CONN
*I *753:D I *D sky130_fd_sc_hd__sdfxtp_1
*I *743:X O *D sky130_fd_sc_hd__clkbuf_1
*CAP
1 *753:D 0
2 *743:X 0.00117206
3 *12:17 0.00117206
4 *12:17 *14:48 4.08002e-06
5 *12:17 *14:59 2.54038e-05
6 *743:A *12:17 0.000112013
*RES
1 *743:X *12:17 47.3886 
2 *12:17 *753:D 9.24915 
*END

*D_NET *13 0.0153968
*CONN
*I *740:A I *D sky130_fd_sc_hd__buf_2
*I *749:GATE I *D sky130_fd_sc_hd__dlxtp_1
*I *748:GATE I *D sky130_fd_sc_hd__dlxtp_1
*I *746:GATE I *D sky130_fd_sc_hd__dlxtp_1
*I *750:GATE I *D sky130_fd_sc_hd__dlxtp_1
*I *747:GATE I *D sky130_fd_sc_hd__dlxtp_1
*I *751:GATE I *D sky130_fd_sc_hd__dlxtp_1
*I *752:GATE I *D sky130_fd_sc_hd__dlxtp_1
*I *744:X O *D sky130_fd_sc_hd__clkbuf_4
*CAP
1 *740:A 0
2 *749:GATE 0
3 *748:GATE 0.000495651
4 *746:GATE 3.7559e-05
5 *750:GATE 0.000539978
6 *747:GATE 0.000135398
7 *751:GATE 0.000209574
8 *752:GATE 0.000292335
9 *744:X 0
10 *13:85 0.00157099
11 *13:34 0.000452364
12 *13:32 0.000709612
13 *13:29 0.000873765
14 *13:24 0.00129771
15 *13:21 0.000266755
16 *13:9 0.00174052
17 *13:6 0.00444382
18 *13:5 0.0016633
19 *750:GATE *746:D 6.24606e-05
20 *750:GATE *758:SCD 0.000226394
21 data_out *752:GATE 0.000327363
22 latch_enable_out *13:85 4.26566e-05
23 *4:10 *748:GATE 8.62625e-06
24 *4:10 *752:GATE 0
*RES
1 *744:X *13:5 13.7491 
2 *13:5 *13:6 42.1115 
3 *13:6 *13:9 33.5082 
4 *13:9 *752:GATE 26.2084 
5 *13:9 *13:21 5.71483 
6 *13:21 *13:24 5.2328 
7 *13:24 *13:29 23.2698 
8 *13:29 *13:32 5.91674 
9 *13:32 *13:34 2.24725 
10 *13:34 *751:GATE 18.5201 
11 *13:34 *747:GATE 16.691 
12 *13:32 *750:GATE 25.6128 
13 *13:29 *746:GATE 10.5271 
14 *13:24 *748:GATE 25.73 
15 *13:21 *749:GATE 9.24915 
16 *13:6 *13:85 44.155 
17 *13:85 *740:A 9.24915 
*END

*D_NET *14 0.0181609
*CONN
*I *759:SCE I *D sky130_fd_sc_hd__sdfxtp_1
*I *756:SCE I *D sky130_fd_sc_hd__sdfxtp_1
*I *757:SCE I *D sky130_fd_sc_hd__sdfxtp_1
*I *760:SCE I *D sky130_fd_sc_hd__sdfxtp_2
*I *754:SCE I *D sky130_fd_sc_hd__sdfxtp_1
*I *741:A I *D sky130_fd_sc_hd__buf_2
*I *753:SCE I *D sky130_fd_sc_hd__sdfxtp_1
*I *758:SCE I *D sky130_fd_sc_hd__sdfxtp_1
*I *755:SCE I *D sky130_fd_sc_hd__sdfxtp_1
*I *745:X O *D sky130_fd_sc_hd__clkbuf_4
*CAP
1 *759:SCE 0.000260922
2 *756:SCE 4.19758e-05
3 *757:SCE 0.000824225
4 *760:SCE 0.000214006
5 *754:SCE 0.00042374
6 *741:A 0.000700153
7 *753:SCE 0
8 *758:SCE 0.000158256
9 *755:SCE 0.000522488
10 *745:X 0.0015568
11 *14:73 0.00103823
12 *14:59 0.00214079
13 *14:48 0.00233149
14 *14:35 0.00104911
15 *14:20 0.000554019
16 *14:18 0.000545001
17 *14:16 0.000142709
18 *14:14 0.000264237
19 *14:12 0.001987
20 *754:SCE *748:D 0.000132219
21 *754:SCE *754:SCD 7.04124e-05
22 *755:SCE *755:D 0.000202196
23 *755:SCE *21:15 1.53737e-06
24 *755:SCE *29:9 0.000254965
25 *756:SCE *756:D 9.69788e-05
26 *757:SCE *757:D 0.000167118
27 *757:SCE *20:11 1.19561e-05
28 *758:SCE *749:D 2.58485e-05
29 *758:SCE *20:11 5.22909e-05
30 *759:SCE *759:D 3.68586e-06
31 *759:SCE *29:9 7.48797e-05
32 *14:12 *759:D 0
33 *14:12 *29:9 5.92342e-05
34 *14:14 *756:D 0
35 *14:14 *29:9 0.000347817
36 *14:16 *756:D 0
37 *14:16 *29:9 0.000123582
38 *14:18 *29:9 0.000316705
39 *14:20 *29:9 7.14746e-05
40 *14:48 *754:D 0.000118166
41 *14:48 *20:11 0.000160617
42 *14:48 *27:16 2.81929e-05
43 *14:59 *753:SCD 0
44 *753:CLK *14:59 2.39519e-05
45 *756:CLK *756:SCE 3.83783e-05
46 *756:CLK *14:16 6.28484e-05
47 *756:CLK *14:18 5.56367e-05
48 *760:CLK *760:SCE 2.16355e-05
49 *11:42 *14:48 0.000293908
50 *11:56 *755:SCE 0.000154417
51 *11:62 *755:SCE 7.65861e-05
52 *11:62 *14:18 0.000262552
53 *11:62 *14:20 6.64609e-05
54 *12:17 *14:48 4.08002e-06
55 *12:17 *14:59 2.54038e-05
*RES
1 *745:X *14:12 49.8823 
2 *14:12 *14:14 5.98452 
3 *14:14 *14:16 2.24725 
4 *14:16 *14:18 5.56926 
5 *14:18 *14:20 1.41674 
6 *14:20 *755:SCE 25.8948 
7 *14:20 *14:35 4.5 
8 *14:35 *758:SCE 11.6786 
9 *14:35 *14:48 18.6455 
10 *14:48 *753:SCE 9.24915 
11 *14:48 *14:59 44.5419 
12 *14:59 *741:A 26.056 
13 *14:18 *754:SCE 20.531 
14 *14:16 *14:73 4.5 
15 *14:73 *760:SCE 12.2332 
16 *14:73 *757:SCE 21.577 
17 *14:14 *756:SCE 15.2984 
18 *14:12 *759:SCE 17.758 
*END

*D_NET *15 0.000978613
*CONN
*I *754:SCD I *D sky130_fd_sc_hd__sdfxtp_1
*I *738:LO O *D sky130_fd_sc_hd__conb_1
*CAP
1 *754:SCD 0.000261501
2 *738:LO 0.000261501
3 *754:SCD *754:D 0.000119898
4 *754:SCE *754:SCD 7.04124e-05
5 *11:23 *754:SCD 0.000265301
*RES
1 *738:LO *754:SCD 26.6244 
*END

*D_NET *16 0.000707622
*CONN
*I *754:D I *D sky130_fd_sc_hd__sdfxtp_1
*I *753:Q O *D sky130_fd_sc_hd__sdfxtp_1
*CAP
1 *754:D 0.000216914
2 *753:Q 0.000216914
3 *754:D *759:D 0
4 *754:SCD *754:D 0.000119898
5 *11:30 *754:D 3.57312e-05
6 *14:48 *754:D 0.000118166
*RES
1 *753:Q *754:D 32.7349 
*END

*D_NET *17 0.00241014
*CONN
*I *755:D I *D sky130_fd_sc_hd__sdfxtp_1
*I *746:D I *D sky130_fd_sc_hd__dlxtp_1
*I *754:Q O *D sky130_fd_sc_hd__sdfxtp_1
*CAP
1 *755:D 0.000189133
2 *746:D 0.000123818
3 *754:Q 0.000170718
4 *17:6 0.000483669
5 *746:D *747:D 0.00017419
6 *746:D *758:SCD 0.000111708
7 *755:D *21:15 0.000157805
8 *17:6 *747:D 6.94439e-05
9 *17:6 *756:D 0.000252906
10 *750:GATE *746:D 6.24606e-05
11 *755:SCE *755:D 0.000202196
12 *11:56 *746:D 0.000170592
13 *11:56 *17:6 0.000186445
14 *11:62 *17:6 5.50603e-05
*RES
1 *754:Q *17:6 19.7337 
2 *17:6 *746:D 19.2141 
3 *17:6 *755:D 21.0434 
*END

*D_NET *18 0.00283409
*CONN
*I *756:D I *D sky130_fd_sc_hd__sdfxtp_1
*I *747:D I *D sky130_fd_sc_hd__dlxtp_1
*I *755:Q O *D sky130_fd_sc_hd__sdfxtp_1
*CAP
1 *756:D 0.000423206
2 *747:D 0.000181996
3 *755:Q 7.65377e-05
4 *18:7 0.00068174
5 *747:D *751:D 5.67465e-05
6 *747:D *758:SCD 0.000222684
7 *756:D *751:D 9.08212e-05
8 *756:D *758:SCD 0.000109859
9 *756:D *22:8 6.26257e-05
10 *18:7 *21:15 0.000111708
11 *746:D *747:D 0.00017419
12 *756:CLK *756:D 4.48454e-05
13 *756:SCE *756:D 9.69788e-05
14 *11:56 *747:D 9.80448e-05
15 *11:62 *756:D 7.97533e-05
16 *14:14 *756:D 0
17 *14:16 *756:D 0
18 *17:6 *747:D 6.94439e-05
19 *17:6 *756:D 0.000252906
*RES
1 *755:Q *18:7 15.0271 
2 *18:7 *747:D 21.8099 
3 *18:7 *756:D 28.2284 
*END

*D_NET *19 0.00304898
*CONN
*I *757:D I *D sky130_fd_sc_hd__sdfxtp_1
*I *748:D I *D sky130_fd_sc_hd__dlxtp_1
*I *756:Q O *D sky130_fd_sc_hd__sdfxtp_1
*CAP
1 *757:D 0.00025083
2 *748:D 0.00104606
3 *756:Q 0
4 *19:4 0.00129689
5 *748:D *756:SCD 0.000114358
6 *748:D *759:D 0
7 *748:D *20:11 4.15008e-05
8 *757:D *759:D 0
9 *754:SCE *748:D 0.000132219
10 *757:SCE *757:D 0.000167118
*RES
1 *756:Q *19:4 9.24915 
2 *19:4 *748:D 41.2094 
3 *19:4 *757:D 25.5722 
*END

*D_NET *20 0.00318238
*CONN
*I *749:D I *D sky130_fd_sc_hd__dlxtp_1
*I *758:D I *D sky130_fd_sc_hd__sdfxtp_1
*I *757:Q O *D sky130_fd_sc_hd__sdfxtp_1
*CAP
1 *749:D 0.000538958
2 *758:D 3.45165e-05
3 *757:Q 0.000424612
4 *20:11 0.000998086
5 *749:D *758:SCD 0.000113968
6 *749:D *27:16 0.000344015
7 *758:D *27:16 2.21764e-05
8 *20:11 *756:SCD 7.50872e-05
9 *20:11 *759:D 0
10 *20:11 *27:16 1.5613e-05
11 *20:11 *29:9 9.7454e-05
12 *748:D *20:11 4.15008e-05
13 *757:SCE *20:11 1.19561e-05
14 *758:SCE *749:D 2.58485e-05
15 *758:SCE *20:11 5.22909e-05
16 *11:42 *20:11 0.00011818
17 *11:46 *20:11 0.000107496
18 *14:48 *20:11 0.000160617
*RES
1 *757:Q *20:11 29.702 
2 *20:11 *758:D 10.5693 
3 *20:11 *749:D 26.1284 
*END

*D_NET *21 0.00445901
*CONN
*I *759:D I *D sky130_fd_sc_hd__sdfxtp_1
*I *750:D I *D sky130_fd_sc_hd__dlxtp_1
*I *758:Q O *D sky130_fd_sc_hd__sdfxtp_1
*CAP
1 *759:D 0.000891324
2 *750:D 0.000171607
3 *758:Q 0.000991872
4 *21:15 0.0020548
5 *750:D *737:A 4.55235e-05
6 *750:D *29:9 0
7 *759:D *737:A 2.91402e-05
8 *759:D *756:SCD 0
9 *759:D *27:16 0
10 *759:D *29:9 0
11 *748:D *759:D 0
12 *754:D *759:D 0
13 *755:CLK *750:D 0
14 *755:CLK *759:D 0
15 *755:D *21:15 0.000157805
16 *755:SCE *21:15 1.53737e-06
17 *757:D *759:D 0
18 *759:SCE *759:D 3.68586e-06
19 *11:30 *759:D 0
20 *14:12 *759:D 0
21 *18:7 *21:15 0.000111708
22 *20:11 *759:D 0
*RES
1 *758:Q *21:15 41.5809 
2 *21:15 *750:D 18.0727 
3 *21:15 *759:D 34.8724 
*END

*D_NET *22 0.00285521
*CONN
*I *760:D I *D sky130_fd_sc_hd__sdfxtp_2
*I *751:D I *D sky130_fd_sc_hd__dlxtp_1
*I *759:Q O *D sky130_fd_sc_hd__sdfxtp_1
*CAP
1 *760:D 4.72368e-05
2 *751:D 0.000782875
3 *759:Q 0.000423338
4 *22:8 0.00125345
5 *751:D *758:SCD 0.00013812
6 *747:D *751:D 5.67465e-05
7 *756:D *751:D 9.08212e-05
8 *756:D *22:8 6.26257e-05
*RES
1 *759:Q *22:8 23.7791 
2 *22:8 *751:D 33.437 
3 *22:8 *760:D 14.7498 
*END

*D_NET *23 0.00257348
*CONN
*I *753:SCD I *D sky130_fd_sc_hd__sdfxtp_1
*I *747:Q O *D sky130_fd_sc_hd__dlxtp_1
*CAP
1 *753:SCD 0.00128674
2 *747:Q 0.00128674
3 *753:SCD *27:16 0
4 *14:59 *753:SCD 0
*RES
1 *747:Q *753:SCD 49.8689 
*END

*D_NET *24 0.00139577
*CONN
*I *737:A I *D sky130_fd_sc_hd__clkinv_2
*I *746:Q O *D sky130_fd_sc_hd__dlxtp_1
*CAP
1 *737:A 0.000434212
2 *746:Q 0.000434212
3 *737:A *755:SCD 0.000122068
4 *737:A *758:SCD 0.00033061
5 *737:A *29:9 0
6 *750:D *737:A 4.55235e-05
7 *759:D *737:A 2.91402e-05
*RES
1 *746:Q *737:A 36.9792 
*END

*D_NET *25 0.000422631
*CONN
*I *755:SCD I *D sky130_fd_sc_hd__sdfxtp_1
*I *737:Y O *D sky130_fd_sc_hd__clkinv_2
*CAP
1 *755:SCD 0.000119858
2 *737:Y 0.000119858
3 *755:SCD *27:16 6.08467e-05
4 *755:SCD *29:9 0
5 *737:A *755:SCD 0.000122068
*RES
1 *737:Y *755:SCD 30.4689 
*END

*D_NET *26 0.00155882
*CONN
*I *756:SCD I *D sky130_fd_sc_hd__sdfxtp_1
*I *748:Q O *D sky130_fd_sc_hd__dlxtp_1
*CAP
1 *756:SCD 0.00052455
2 *748:Q 0.00052455
3 *756:SCD *29:9 0.000320272
4 *748:D *756:SCD 0.000114358
5 *759:D *756:SCD 0
6 *20:11 *756:SCD 7.50872e-05
*RES
1 *748:Q *756:SCD 38.7824 
*END

*D_NET *27 0.00418131
*CONN
*I *757:SCD I *D sky130_fd_sc_hd__sdfxtp_1
*I *749:Q O *D sky130_fd_sc_hd__dlxtp_1
*CAP
1 *757:SCD 0
2 *749:Q 0.00138062
3 *27:16 0.00138062
4 *27:16 *758:SCD 4.58003e-05
5 *749:D *27:16 0.000344015
6 *753:SCD *27:16 0
7 *755:CLK *27:16 6.08697e-06
8 *755:SCD *27:16 6.08467e-05
9 *758:D *27:16 2.21764e-05
10 *759:D *27:16 0
11 *11:22 *27:16 0
12 *11:30 *27:16 6.77522e-05
13 *11:42 *27:16 0.000777279
14 *11:46 *27:16 5.23032e-05
15 *14:48 *27:16 2.81929e-05
16 *20:11 *27:16 1.5613e-05
*RES
1 *749:Q *27:16 46.4912 
2 *27:16 *757:SCD 13.7491 
*END

*D_NET *28 0.00255138
*CONN
*I *758:SCD I *D sky130_fd_sc_hd__sdfxtp_1
*I *750:Q O *D sky130_fd_sc_hd__dlxtp_1
*CAP
1 *758:SCD 0.000626119
2 *750:Q 0.000626119
3 *737:A *758:SCD 0.00033061
4 *746:D *758:SCD 0.000111708
5 *747:D *758:SCD 0.000222684
6 *749:D *758:SCD 0.000113968
7 *750:GATE *758:SCD 0.000226394
8 *751:D *758:SCD 0.00013812
9 *756:D *758:SCD 0.000109859
10 *27:16 *758:SCD 4.58003e-05
*RES
1 *750:Q *758:SCD 48.2642 
*END

*D_NET *29 0.00358481
*CONN
*I *759:SCD I *D sky130_fd_sc_hd__sdfxtp_1
*I *751:Q O *D sky130_fd_sc_hd__dlxtp_1
*CAP
1 *759:SCD 0
2 *751:Q 0.00089284
3 *29:9 0.00089284
4 *737:A *29:9 0
5 *750:D *29:9 0
6 *755:SCD *29:9 0
7 *755:SCE *29:9 0.000254965
8 *756:SCD *29:9 0.000320272
9 *759:D *29:9 0
10 *759:SCE *29:9 7.48797e-05
11 *11:56 *29:9 0.000132743
12 *14:12 *29:9 5.92342e-05
13 *14:14 *29:9 0.000347817
14 *14:16 *29:9 0.000123582
15 *14:18 *29:9 0.000316705
16 *14:20 *29:9 7.14746e-05
17 *20:11 *29:9 9.7454e-05
*RES
1 *751:Q *29:9 48.9051 
2 *29:9 *759:SCD 9.24915 
*END

*D_NET *30 0.00114685
*CONN
*I *760:SCD I *D sky130_fd_sc_hd__sdfxtp_2
*I *752:Q O *D sky130_fd_sc_hd__dlxtp_1
*CAP
1 *760:SCD 0.00048769
2 *752:Q 0.00048769
3 *4:10 *760:SCD 0.000171473
*RES
1 *752:Q *760:SCD 40.4518 
*END
